
---------- Begin Simulation Statistics ----------
sim_seconds                              15973.878096                       # Number of seconds simulated
sim_ticks                                15973878096204314                       # Number of ticks simulated
final_tick                               15973878096204314                       # Number of ticks from beginning of simulation (restored from checkpoints and never reset)
sim_freq                                 1000000000000                       # Frequency of simulated ticks
host_inst_rate                                1948802                       # Simulator instruction rate (inst/s)
host_op_rate                                  2287463                       # Simulator op (including micro ops) rate (op/s)
host_tick_rate                           15926196647287                       # Simulator tick rate (ticks/s)
host_mem_usage                                2514296                       # Number of bytes of host memory used
host_seconds                                  1002.99                       # Real time elapsed on the host
sim_insts                                  1954636172                       # Number of instructions simulated
sim_ops                                    2294311359                       # Number of ops (including micro ops) simulated
system.voltage_domain.voltage                       1                       # Voltage in Volts
system.clk_domain.clock                          1000                       # Clock period in ticks
system.mem_ctrls.pwrStateResidencyTicks::UNDEFINED 15973878096204314                       # Cumulative time (in ticks) in various power states
system.mem_ctrls.bytes_read::cpu0.dtb.walker      4883360                       # Number of bytes read from this memory
system.mem_ctrls.bytes_read::cpu0.itb.walker      2301336                       # Number of bytes read from this memory
system.mem_ctrls.bytes_read::cpu0.inst     3107020644                       # Number of bytes read from this memory
system.mem_ctrls.bytes_read::cpu0.data     1407301323                       # Number of bytes read from this memory
system.mem_ctrls.bytes_read::cpu1.dtb.walker      4586024                       # Number of bytes read from this memory
system.mem_ctrls.bytes_read::cpu1.itb.walker      3326040                       # Number of bytes read from this memory
system.mem_ctrls.bytes_read::cpu1.inst     1296648684                       # Number of bytes read from this memory
system.mem_ctrls.bytes_read::cpu1.data      600336684                       # Number of bytes read from this memory
system.mem_ctrls.bytes_read::cpu2.dtb.walker     12219160                       # Number of bytes read from this memory
system.mem_ctrls.bytes_read::cpu2.itb.walker      2159752                       # Number of bytes read from this memory
system.mem_ctrls.bytes_read::cpu2.inst     1624790900                       # Number of bytes read from this memory
system.mem_ctrls.bytes_read::cpu2.data      780019372                       # Number of bytes read from this memory
system.mem_ctrls.bytes_read::cpu3.dtb.walker      7107400                       # Number of bytes read from this memory
system.mem_ctrls.bytes_read::cpu3.itb.walker      4527728                       # Number of bytes read from this memory
system.mem_ctrls.bytes_read::cpu3.inst     1795853688                       # Number of bytes read from this memory
system.mem_ctrls.bytes_read::cpu3.data      837363491                       # Number of bytes read from this memory
system.mem_ctrls.bytes_read::pci_ide           536184                       # Number of bytes read from this memory
system.mem_ctrls.bytes_read::total        11490981770                       # Number of bytes read from this memory
system.mem_ctrls.bytes_inst_read::cpu0.inst   3107020644                       # Number of instructions bytes read from this memory
system.mem_ctrls.bytes_inst_read::cpu1.inst   1296648684                       # Number of instructions bytes read from this memory
system.mem_ctrls.bytes_inst_read::cpu2.inst   1624790900                       # Number of instructions bytes read from this memory
system.mem_ctrls.bytes_inst_read::cpu3.inst   1795853688                       # Number of instructions bytes read from this memory
system.mem_ctrls.bytes_inst_read::total    7824313916                       # Number of instructions bytes read from this memory
system.mem_ctrls.bytes_written::cpu0.data   1152681546                       # Number of bytes written to this memory
system.mem_ctrls.bytes_written::cpu1.data    473158720                       # Number of bytes written to this memory
system.mem_ctrls.bytes_written::cpu2.data    512882859                       # Number of bytes written to this memory
system.mem_ctrls.bytes_written::cpu3.data    633434244                       # Number of bytes written to this memory
system.mem_ctrls.bytes_written::pci_ide      16156160                       # Number of bytes written to this memory
system.mem_ctrls.bytes_written::total      2788313529                       # Number of bytes written to this memory
system.mem_ctrls.num_reads::cpu0.dtb.walker       610420                       # Number of read requests responded to by this memory
system.mem_ctrls.num_reads::cpu0.itb.walker       287667                       # Number of read requests responded to by this memory
system.mem_ctrls.num_reads::cpu0.inst       776755161                       # Number of read requests responded to by this memory
system.mem_ctrls.num_reads::cpu0.data       160465833                       # Number of read requests responded to by this memory
system.mem_ctrls.num_reads::cpu1.dtb.walker       573253                       # Number of read requests responded to by this memory
system.mem_ctrls.num_reads::cpu1.itb.walker       415755                       # Number of read requests responded to by this memory
system.mem_ctrls.num_reads::cpu1.inst       324162171                       # Number of read requests responded to by this memory
system.mem_ctrls.num_reads::cpu1.data        69987951                       # Number of read requests responded to by this memory
system.mem_ctrls.num_reads::cpu2.dtb.walker      1527395                       # Number of read requests responded to by this memory
system.mem_ctrls.num_reads::cpu2.itb.walker       269969                       # Number of read requests responded to by this memory
system.mem_ctrls.num_reads::cpu2.inst       406197725                       # Number of read requests responded to by this memory
system.mem_ctrls.num_reads::cpu2.data        92494205                       # Number of read requests responded to by this memory
system.mem_ctrls.num_reads::cpu3.dtb.walker       888425                       # Number of read requests responded to by this memory
system.mem_ctrls.num_reads::cpu3.itb.walker       565966                       # Number of read requests responded to by this memory
system.mem_ctrls.num_reads::cpu3.inst       448963422                       # Number of read requests responded to by this memory
system.mem_ctrls.num_reads::cpu3.data        98758308                       # Number of read requests responded to by this memory
system.mem_ctrls.num_reads::pci_ide             11023                       # Number of read requests responded to by this memory
system.mem_ctrls.num_reads::total          2382934649                       # Number of read requests responded to by this memory
system.mem_ctrls.num_writes::cpu0.data      136038064                       # Number of write requests responded to by this memory
system.mem_ctrls.num_writes::cpu1.data       60251161                       # Number of write requests responded to by this memory
system.mem_ctrls.num_writes::cpu2.data       65860099                       # Number of write requests responded to by this memory
system.mem_ctrls.num_writes::cpu3.data       82646742                       # Number of write requests responded to by this memory
system.mem_ctrls.num_writes::pci_ide           252440                       # Number of write requests responded to by this memory
system.mem_ctrls.num_writes::total          345048506                       # Number of write requests responded to by this memory
system.mem_ctrls.bw_read::cpu0.dtb.walker          306                       # Total read bandwidth from this memory (bytes/s)
system.mem_ctrls.bw_read::cpu0.itb.walker          144                       # Total read bandwidth from this memory (bytes/s)
system.mem_ctrls.bw_read::cpu0.inst            194506                       # Total read bandwidth from this memory (bytes/s)
system.mem_ctrls.bw_read::cpu0.data             88100                       # Total read bandwidth from this memory (bytes/s)
system.mem_ctrls.bw_read::cpu1.dtb.walker          287                       # Total read bandwidth from this memory (bytes/s)
system.mem_ctrls.bw_read::cpu1.itb.walker          208                       # Total read bandwidth from this memory (bytes/s)
system.mem_ctrls.bw_read::cpu1.inst             81173                       # Total read bandwidth from this memory (bytes/s)
system.mem_ctrls.bw_read::cpu1.data             37582                       # Total read bandwidth from this memory (bytes/s)
system.mem_ctrls.bw_read::cpu2.dtb.walker          765                       # Total read bandwidth from this memory (bytes/s)
system.mem_ctrls.bw_read::cpu2.itb.walker          135                       # Total read bandwidth from this memory (bytes/s)
system.mem_ctrls.bw_read::cpu2.inst            101715                       # Total read bandwidth from this memory (bytes/s)
system.mem_ctrls.bw_read::cpu2.data             48831                       # Total read bandwidth from this memory (bytes/s)
system.mem_ctrls.bw_read::cpu3.dtb.walker          445                       # Total read bandwidth from this memory (bytes/s)
system.mem_ctrls.bw_read::cpu3.itb.walker          283                       # Total read bandwidth from this memory (bytes/s)
system.mem_ctrls.bw_read::cpu3.inst            112424                       # Total read bandwidth from this memory (bytes/s)
system.mem_ctrls.bw_read::cpu3.data             52421                       # Total read bandwidth from this memory (bytes/s)
system.mem_ctrls.bw_read::pci_ide                  34                       # Total read bandwidth from this memory (bytes/s)
system.mem_ctrls.bw_read::total                719361                       # Total read bandwidth from this memory (bytes/s)
system.mem_ctrls.bw_inst_read::cpu0.inst       194506                       # Instruction read bandwidth from this memory (bytes/s)
system.mem_ctrls.bw_inst_read::cpu1.inst        81173                       # Instruction read bandwidth from this memory (bytes/s)
system.mem_ctrls.bw_inst_read::cpu2.inst       101715                       # Instruction read bandwidth from this memory (bytes/s)
system.mem_ctrls.bw_inst_read::cpu3.inst       112424                       # Instruction read bandwidth from this memory (bytes/s)
system.mem_ctrls.bw_inst_read::total           489819                       # Instruction read bandwidth from this memory (bytes/s)
system.mem_ctrls.bw_write::cpu0.data            72160                       # Write bandwidth from this memory (bytes/s)
system.mem_ctrls.bw_write::cpu1.data            29621                       # Write bandwidth from this memory (bytes/s)
system.mem_ctrls.bw_write::cpu2.data            32108                       # Write bandwidth from this memory (bytes/s)
system.mem_ctrls.bw_write::cpu3.data            39654                       # Write bandwidth from this memory (bytes/s)
system.mem_ctrls.bw_write::pci_ide               1011                       # Write bandwidth from this memory (bytes/s)
system.mem_ctrls.bw_write::total               174555                       # Write bandwidth from this memory (bytes/s)
system.mem_ctrls.bw_total::cpu0.dtb.walker          306                       # Total bandwidth to/from this memory (bytes/s)
system.mem_ctrls.bw_total::cpu0.itb.walker          144                       # Total bandwidth to/from this memory (bytes/s)
system.mem_ctrls.bw_total::cpu0.inst           194506                       # Total bandwidth to/from this memory (bytes/s)
system.mem_ctrls.bw_total::cpu0.data           160261                       # Total bandwidth to/from this memory (bytes/s)
system.mem_ctrls.bw_total::cpu1.dtb.walker          287                       # Total bandwidth to/from this memory (bytes/s)
system.mem_ctrls.bw_total::cpu1.itb.walker          208                       # Total bandwidth to/from this memory (bytes/s)
system.mem_ctrls.bw_total::cpu1.inst            81173                       # Total bandwidth to/from this memory (bytes/s)
system.mem_ctrls.bw_total::cpu1.data            67203                       # Total bandwidth to/from this memory (bytes/s)
system.mem_ctrls.bw_total::cpu2.dtb.walker          765                       # Total bandwidth to/from this memory (bytes/s)
system.mem_ctrls.bw_total::cpu2.itb.walker          135                       # Total bandwidth to/from this memory (bytes/s)
system.mem_ctrls.bw_total::cpu2.inst           101715                       # Total bandwidth to/from this memory (bytes/s)
system.mem_ctrls.bw_total::cpu2.data            80939                       # Total bandwidth to/from this memory (bytes/s)
system.mem_ctrls.bw_total::cpu3.dtb.walker          445                       # Total bandwidth to/from this memory (bytes/s)
system.mem_ctrls.bw_total::cpu3.itb.walker          283                       # Total bandwidth to/from this memory (bytes/s)
system.mem_ctrls.bw_total::cpu3.inst           112424                       # Total bandwidth to/from this memory (bytes/s)
system.mem_ctrls.bw_total::cpu3.data            92075                       # Total bandwidth to/from this memory (bytes/s)
system.mem_ctrls.bw_total::pci_ide               1045                       # Total bandwidth to/from this memory (bytes/s)
system.mem_ctrls.bw_total::total               893915                       # Total bandwidth to/from this memory (bytes/s)
system.mem_ctrls.readReqs                           0                       # Number of read requests accepted
system.mem_ctrls.writeReqs                          0                       # Number of write requests accepted
system.mem_ctrls.readBursts                         0                       # Number of DRAM read bursts, including those serviced by the write queue
system.mem_ctrls.writeBursts                        0                       # Number of DRAM write bursts, including those merged in the write queue
system.mem_ctrls.bytesReadDRAM                      0                       # Total number of bytes read from DRAM
system.mem_ctrls.bytesReadWrQ                       0                       # Total number of bytes read from write queue
system.mem_ctrls.bytesWritten                       0                       # Total number of bytes written to DRAM
system.mem_ctrls.bytesReadSys                       0                       # Total read bytes from the system interface side
system.mem_ctrls.bytesWrittenSys                    0                       # Total written bytes from the system interface side
system.mem_ctrls.servicedByWrQ                      0                       # Number of DRAM read bursts serviced by the write queue
system.mem_ctrls.mergedWrBursts                     0                       # Number of DRAM write bursts merged with an existing one
system.mem_ctrls.neitherReadNorWriteReqs            0                       # Number of requests that are neither read nor write
system.mem_ctrls.perBankRdBursts::0                 0                       # Per bank write bursts
system.mem_ctrls.perBankRdBursts::1                 0                       # Per bank write bursts
system.mem_ctrls.perBankRdBursts::2                 0                       # Per bank write bursts
system.mem_ctrls.perBankRdBursts::3                 0                       # Per bank write bursts
system.mem_ctrls.perBankRdBursts::4                 0                       # Per bank write bursts
system.mem_ctrls.perBankRdBursts::5                 0                       # Per bank write bursts
system.mem_ctrls.perBankRdBursts::6                 0                       # Per bank write bursts
system.mem_ctrls.perBankRdBursts::7                 0                       # Per bank write bursts
system.mem_ctrls.perBankRdBursts::8                 0                       # Per bank write bursts
system.mem_ctrls.perBankRdBursts::9                 0                       # Per bank write bursts
system.mem_ctrls.perBankRdBursts::10                0                       # Per bank write bursts
system.mem_ctrls.perBankRdBursts::11                0                       # Per bank write bursts
system.mem_ctrls.perBankRdBursts::12                0                       # Per bank write bursts
system.mem_ctrls.perBankRdBursts::13                0                       # Per bank write bursts
system.mem_ctrls.perBankRdBursts::14                0                       # Per bank write bursts
system.mem_ctrls.perBankRdBursts::15                0                       # Per bank write bursts
system.mem_ctrls.perBankWrBursts::0                 0                       # Per bank write bursts
system.mem_ctrls.perBankWrBursts::1                 0                       # Per bank write bursts
system.mem_ctrls.perBankWrBursts::2                 0                       # Per bank write bursts
system.mem_ctrls.perBankWrBursts::3                 0                       # Per bank write bursts
system.mem_ctrls.perBankWrBursts::4                 0                       # Per bank write bursts
system.mem_ctrls.perBankWrBursts::5                 0                       # Per bank write bursts
system.mem_ctrls.perBankWrBursts::6                 0                       # Per bank write bursts
system.mem_ctrls.perBankWrBursts::7                 0                       # Per bank write bursts
system.mem_ctrls.perBankWrBursts::8                 0                       # Per bank write bursts
system.mem_ctrls.perBankWrBursts::9                 0                       # Per bank write bursts
system.mem_ctrls.perBankWrBursts::10                0                       # Per bank write bursts
system.mem_ctrls.perBankWrBursts::11                0                       # Per bank write bursts
system.mem_ctrls.perBankWrBursts::12                0                       # Per bank write bursts
system.mem_ctrls.perBankWrBursts::13                0                       # Per bank write bursts
system.mem_ctrls.perBankWrBursts::14                0                       # Per bank write bursts
system.mem_ctrls.perBankWrBursts::15                0                       # Per bank write bursts
system.mem_ctrls.numRdRetry                         0                       # Number of times read queue was full causing retry
system.mem_ctrls.numWrRetry                         0                       # Number of times write queue was full causing retry
system.mem_ctrls.totGap                             0                       # Total gap between requests
system.mem_ctrls.readPktSize::0                     0                       # Read request sizes (log2)
system.mem_ctrls.readPktSize::1                     0                       # Read request sizes (log2)
system.mem_ctrls.readPktSize::2                     0                       # Read request sizes (log2)
system.mem_ctrls.readPktSize::3                     0                       # Read request sizes (log2)
system.mem_ctrls.readPktSize::4                     0                       # Read request sizes (log2)
system.mem_ctrls.readPktSize::5                     0                       # Read request sizes (log2)
system.mem_ctrls.readPktSize::6                     0                       # Read request sizes (log2)
system.mem_ctrls.writePktSize::0                    0                       # Write request sizes (log2)
system.mem_ctrls.writePktSize::1                    0                       # Write request sizes (log2)
system.mem_ctrls.writePktSize::2                    0                       # Write request sizes (log2)
system.mem_ctrls.writePktSize::3                    0                       # Write request sizes (log2)
system.mem_ctrls.writePktSize::4                    0                       # Write request sizes (log2)
system.mem_ctrls.writePktSize::5                    0                       # Write request sizes (log2)
system.mem_ctrls.writePktSize::6                    0                       # Write request sizes (log2)
system.mem_ctrls.rdQLenPdf::0                       0                       # What read queue length does an incoming req see
system.mem_ctrls.rdQLenPdf::1                       0                       # What read queue length does an incoming req see
system.mem_ctrls.rdQLenPdf::2                       0                       # What read queue length does an incoming req see
system.mem_ctrls.rdQLenPdf::3                       0                       # What read queue length does an incoming req see
system.mem_ctrls.rdQLenPdf::4                       0                       # What read queue length does an incoming req see
system.mem_ctrls.rdQLenPdf::5                       0                       # What read queue length does an incoming req see
system.mem_ctrls.rdQLenPdf::6                       0                       # What read queue length does an incoming req see
system.mem_ctrls.rdQLenPdf::7                       0                       # What read queue length does an incoming req see
system.mem_ctrls.rdQLenPdf::8                       0                       # What read queue length does an incoming req see
system.mem_ctrls.rdQLenPdf::9                       0                       # What read queue length does an incoming req see
system.mem_ctrls.rdQLenPdf::10                      0                       # What read queue length does an incoming req see
system.mem_ctrls.rdQLenPdf::11                      0                       # What read queue length does an incoming req see
system.mem_ctrls.rdQLenPdf::12                      0                       # What read queue length does an incoming req see
system.mem_ctrls.rdQLenPdf::13                      0                       # What read queue length does an incoming req see
system.mem_ctrls.rdQLenPdf::14                      0                       # What read queue length does an incoming req see
system.mem_ctrls.rdQLenPdf::15                      0                       # What read queue length does an incoming req see
system.mem_ctrls.rdQLenPdf::16                      0                       # What read queue length does an incoming req see
system.mem_ctrls.rdQLenPdf::17                      0                       # What read queue length does an incoming req see
system.mem_ctrls.rdQLenPdf::18                      0                       # What read queue length does an incoming req see
system.mem_ctrls.rdQLenPdf::19                      0                       # What read queue length does an incoming req see
system.mem_ctrls.rdQLenPdf::20                      0                       # What read queue length does an incoming req see
system.mem_ctrls.rdQLenPdf::21                      0                       # What read queue length does an incoming req see
system.mem_ctrls.rdQLenPdf::22                      0                       # What read queue length does an incoming req see
system.mem_ctrls.rdQLenPdf::23                      0                       # What read queue length does an incoming req see
system.mem_ctrls.rdQLenPdf::24                      0                       # What read queue length does an incoming req see
system.mem_ctrls.rdQLenPdf::25                      0                       # What read queue length does an incoming req see
system.mem_ctrls.rdQLenPdf::26                      0                       # What read queue length does an incoming req see
system.mem_ctrls.rdQLenPdf::27                      0                       # What read queue length does an incoming req see
system.mem_ctrls.rdQLenPdf::28                      0                       # What read queue length does an incoming req see
system.mem_ctrls.rdQLenPdf::29                      0                       # What read queue length does an incoming req see
system.mem_ctrls.rdQLenPdf::30                      0                       # What read queue length does an incoming req see
system.mem_ctrls.rdQLenPdf::31                      0                       # What read queue length does an incoming req see
system.mem_ctrls.wrQLenPdf::0                       0                       # What write queue length does an incoming req see
system.mem_ctrls.wrQLenPdf::1                       0                       # What write queue length does an incoming req see
system.mem_ctrls.wrQLenPdf::2                       0                       # What write queue length does an incoming req see
system.mem_ctrls.wrQLenPdf::3                       0                       # What write queue length does an incoming req see
system.mem_ctrls.wrQLenPdf::4                       0                       # What write queue length does an incoming req see
system.mem_ctrls.wrQLenPdf::5                       0                       # What write queue length does an incoming req see
system.mem_ctrls.wrQLenPdf::6                       0                       # What write queue length does an incoming req see
system.mem_ctrls.wrQLenPdf::7                       0                       # What write queue length does an incoming req see
system.mem_ctrls.wrQLenPdf::8                       0                       # What write queue length does an incoming req see
system.mem_ctrls.wrQLenPdf::9                       0                       # What write queue length does an incoming req see
system.mem_ctrls.wrQLenPdf::10                      0                       # What write queue length does an incoming req see
system.mem_ctrls.wrQLenPdf::11                      0                       # What write queue length does an incoming req see
system.mem_ctrls.wrQLenPdf::12                      0                       # What write queue length does an incoming req see
system.mem_ctrls.wrQLenPdf::13                      0                       # What write queue length does an incoming req see
system.mem_ctrls.wrQLenPdf::14                      0                       # What write queue length does an incoming req see
system.mem_ctrls.wrQLenPdf::15                      0                       # What write queue length does an incoming req see
system.mem_ctrls.wrQLenPdf::16                      0                       # What write queue length does an incoming req see
system.mem_ctrls.wrQLenPdf::17                      0                       # What write queue length does an incoming req see
system.mem_ctrls.wrQLenPdf::18                      0                       # What write queue length does an incoming req see
system.mem_ctrls.wrQLenPdf::19                      0                       # What write queue length does an incoming req see
system.mem_ctrls.wrQLenPdf::20                      0                       # What write queue length does an incoming req see
system.mem_ctrls.wrQLenPdf::21                      0                       # What write queue length does an incoming req see
system.mem_ctrls.wrQLenPdf::22                      0                       # What write queue length does an incoming req see
system.mem_ctrls.wrQLenPdf::23                      0                       # What write queue length does an incoming req see
system.mem_ctrls.wrQLenPdf::24                      0                       # What write queue length does an incoming req see
system.mem_ctrls.wrQLenPdf::25                      0                       # What write queue length does an incoming req see
system.mem_ctrls.wrQLenPdf::26                      0                       # What write queue length does an incoming req see
system.mem_ctrls.wrQLenPdf::27                      0                       # What write queue length does an incoming req see
system.mem_ctrls.wrQLenPdf::28                      0                       # What write queue length does an incoming req see
system.mem_ctrls.wrQLenPdf::29                      0                       # What write queue length does an incoming req see
system.mem_ctrls.wrQLenPdf::30                      0                       # What write queue length does an incoming req see
system.mem_ctrls.wrQLenPdf::31                      0                       # What write queue length does an incoming req see
system.mem_ctrls.wrQLenPdf::32                      0                       # What write queue length does an incoming req see
system.mem_ctrls.wrQLenPdf::33                      0                       # What write queue length does an incoming req see
system.mem_ctrls.wrQLenPdf::34                      0                       # What write queue length does an incoming req see
system.mem_ctrls.wrQLenPdf::35                      0                       # What write queue length does an incoming req see
system.mem_ctrls.wrQLenPdf::36                      0                       # What write queue length does an incoming req see
system.mem_ctrls.wrQLenPdf::37                      0                       # What write queue length does an incoming req see
system.mem_ctrls.wrQLenPdf::38                      0                       # What write queue length does an incoming req see
system.mem_ctrls.wrQLenPdf::39                      0                       # What write queue length does an incoming req see
system.mem_ctrls.wrQLenPdf::40                      0                       # What write queue length does an incoming req see
system.mem_ctrls.wrQLenPdf::41                      0                       # What write queue length does an incoming req see
system.mem_ctrls.wrQLenPdf::42                      0                       # What write queue length does an incoming req see
system.mem_ctrls.wrQLenPdf::43                      0                       # What write queue length does an incoming req see
system.mem_ctrls.wrQLenPdf::44                      0                       # What write queue length does an incoming req see
system.mem_ctrls.wrQLenPdf::45                      0                       # What write queue length does an incoming req see
system.mem_ctrls.wrQLenPdf::46                      0                       # What write queue length does an incoming req see
system.mem_ctrls.wrQLenPdf::47                      0                       # What write queue length does an incoming req see
system.mem_ctrls.wrQLenPdf::48                      0                       # What write queue length does an incoming req see
system.mem_ctrls.wrQLenPdf::49                      0                       # What write queue length does an incoming req see
system.mem_ctrls.wrQLenPdf::50                      0                       # What write queue length does an incoming req see
system.mem_ctrls.wrQLenPdf::51                      0                       # What write queue length does an incoming req see
system.mem_ctrls.wrQLenPdf::52                      0                       # What write queue length does an incoming req see
system.mem_ctrls.wrQLenPdf::53                      0                       # What write queue length does an incoming req see
system.mem_ctrls.wrQLenPdf::54                      0                       # What write queue length does an incoming req see
system.mem_ctrls.wrQLenPdf::55                      0                       # What write queue length does an incoming req see
system.mem_ctrls.wrQLenPdf::56                      0                       # What write queue length does an incoming req see
system.mem_ctrls.wrQLenPdf::57                      0                       # What write queue length does an incoming req see
system.mem_ctrls.wrQLenPdf::58                      0                       # What write queue length does an incoming req see
system.mem_ctrls.wrQLenPdf::59                      0                       # What write queue length does an incoming req see
system.mem_ctrls.wrQLenPdf::60                      0                       # What write queue length does an incoming req see
system.mem_ctrls.wrQLenPdf::61                      0                       # What write queue length does an incoming req see
system.mem_ctrls.wrQLenPdf::62                      0                       # What write queue length does an incoming req see
system.mem_ctrls.wrQLenPdf::63                      0                       # What write queue length does an incoming req see
system.mem_ctrls.totQLat                            0                       # Total ticks spent queuing
system.mem_ctrls.totMemAccLat                       0                       # Total ticks spent from burst creation until serviced by the DRAM
system.mem_ctrls.totBusLat                          0                       # Total ticks spent in databus transfers
system.mem_ctrls.avgQLat                          nan                       # Average queueing delay per DRAM burst
system.mem_ctrls.avgBusLat                        nan                       # Average bus latency per DRAM burst
system.mem_ctrls.avgMemAccLat                     nan                       # Average memory access latency per DRAM burst
system.mem_ctrls.avgRdBW                         0.00                       # Average DRAM read bandwidth in MiByte/s
system.mem_ctrls.avgWrBW                         0.00                       # Average achieved write bandwidth in MiByte/s
system.mem_ctrls.avgRdBWSys                      0.00                       # Average system read bandwidth in MiByte/s
system.mem_ctrls.avgWrBWSys                      0.00                       # Average system write bandwidth in MiByte/s
system.mem_ctrls.peakBW                      12800.00                       # Theoretical peak bandwidth in MiByte/s
system.mem_ctrls.busUtil                         0.00                       # Data bus utilization in percentage
system.mem_ctrls.busUtilRead                     0.00                       # Data bus utilization in percentage for reads
system.mem_ctrls.busUtilWrite                    0.00                       # Data bus utilization in percentage for writes
system.mem_ctrls.avgRdQLen                       0.00                       # Average read queue length when enqueuing
system.mem_ctrls.avgWrQLen                       0.00                       # Average write queue length when enqueuing
system.mem_ctrls.readRowHits                        0                       # Number of row buffer hits during reads
system.mem_ctrls.writeRowHits                       0                       # Number of row buffer hits during writes
system.mem_ctrls.readRowHitRate                   nan                       # Row buffer hit rate for reads
system.mem_ctrls.writeRowHitRate                  nan                       # Row buffer hit rate for writes
system.mem_ctrls.avgGap                           nan                       # Average gap between requests
system.mem_ctrls.pageHitRate                      nan                       # Row buffer hit rate, read and write combined
system.mem_ctrls_0.actEnergy                        0                       # Energy for activate commands per rank (pJ)
system.mem_ctrls_0.preEnergy                        0                       # Energy for precharge commands per rank (pJ)
system.mem_ctrls_0.readEnergy                       0                       # Energy for read commands per rank (pJ)
system.mem_ctrls_0.writeEnergy                      0                       # Energy for write commands per rank (pJ)
system.mem_ctrls_0.refreshEnergy                    0                       # Energy for refresh commands per rank (pJ)
system.mem_ctrls_0.actBackEnergy                    0                       # Energy for active background per rank (pJ)
system.mem_ctrls_0.preBackEnergy         6133969188942720                       # Energy for precharge background per rank (pJ)
system.mem_ctrls_0.actPowerDownEnergy               0                       # Energy for active power-down per rank (pJ)
system.mem_ctrls_0.prePowerDownEnergy               0                       # Energy for precharge power-down per rank (pJ)
system.mem_ctrls_0.selfRefreshEnergy                0                       # Energy for self refresh per rank (pJ)
system.mem_ctrls_0.totalEnergy           6133969188942720                       # Total energy per rank (pJ)
system.mem_ctrls_0.averagePower                   384                       # Core power per rank (mW)
system.mem_ctrls_0.totalIdleTime                    0                       # Total Idle time Per DRAM Rank
system.mem_ctrls_0.memoryStateTime::IDLE 15973878096204314                       # Time in different power states
system.mem_ctrls_0.memoryStateTime::REF             0                       # Time in different power states
system.mem_ctrls_0.memoryStateTime::SREF            0                       # Time in different power states
system.mem_ctrls_0.memoryStateTime::PRE_PDN            0                       # Time in different power states
system.mem_ctrls_0.memoryStateTime::ACT             0                       # Time in different power states
system.mem_ctrls_0.memoryStateTime::ACT_PDN            0                       # Time in different power states
system.mem_ctrls_1.actEnergy                        0                       # Energy for activate commands per rank (pJ)
system.mem_ctrls_1.preEnergy                        0                       # Energy for precharge commands per rank (pJ)
system.mem_ctrls_1.readEnergy                       0                       # Energy for read commands per rank (pJ)
system.mem_ctrls_1.writeEnergy                      0                       # Energy for write commands per rank (pJ)
system.mem_ctrls_1.refreshEnergy                    0                       # Energy for refresh commands per rank (pJ)
system.mem_ctrls_1.actBackEnergy                    0                       # Energy for active background per rank (pJ)
system.mem_ctrls_1.preBackEnergy         6133969188942720                       # Energy for precharge background per rank (pJ)
system.mem_ctrls_1.actPowerDownEnergy               0                       # Energy for active power-down per rank (pJ)
system.mem_ctrls_1.prePowerDownEnergy               0                       # Energy for precharge power-down per rank (pJ)
system.mem_ctrls_1.selfRefreshEnergy                0                       # Energy for self refresh per rank (pJ)
system.mem_ctrls_1.totalEnergy           6133969188942720                       # Total energy per rank (pJ)
system.mem_ctrls_1.averagePower                   384                       # Core power per rank (mW)
system.mem_ctrls_1.totalIdleTime                    0                       # Total Idle time Per DRAM Rank
system.mem_ctrls_1.memoryStateTime::IDLE 15973878096204314                       # Time in different power states
system.mem_ctrls_1.memoryStateTime::REF             0                       # Time in different power states
system.mem_ctrls_1.memoryStateTime::SREF            0                       # Time in different power states
system.mem_ctrls_1.memoryStateTime::PRE_PDN            0                       # Time in different power states
system.mem_ctrls_1.memoryStateTime::ACT             0                       # Time in different power states
system.mem_ctrls_1.memoryStateTime::ACT_PDN            0                       # Time in different power states
system.realview.nvmem.pwrStateResidencyTicks::UNDEFINED 15973878096204314                       # Cumulative time (in ticks) in various power states
system.realview.nvmem.bytes_read::cpu0.inst           96                       # Number of bytes read from this memory
system.realview.nvmem.bytes_read::cpu0.data           36                       # Number of bytes read from this memory
system.realview.nvmem.bytes_read::cpu1.inst           64                       # Number of bytes read from this memory
system.realview.nvmem.bytes_read::cpu1.data            8                       # Number of bytes read from this memory
system.realview.nvmem.bytes_read::cpu2.inst           64                       # Number of bytes read from this memory
system.realview.nvmem.bytes_read::cpu2.data            8                       # Number of bytes read from this memory
system.realview.nvmem.bytes_read::cpu3.inst           64                       # Number of bytes read from this memory
system.realview.nvmem.bytes_read::cpu3.data            8                       # Number of bytes read from this memory
system.realview.nvmem.bytes_read::total           348                       # Number of bytes read from this memory
system.realview.nvmem.bytes_inst_read::cpu0.inst           96                       # Number of instructions bytes read from this memory
system.realview.nvmem.bytes_inst_read::cpu1.inst           64                       # Number of instructions bytes read from this memory
system.realview.nvmem.bytes_inst_read::cpu2.inst           64                       # Number of instructions bytes read from this memory
system.realview.nvmem.bytes_inst_read::cpu3.inst           64                       # Number of instructions bytes read from this memory
system.realview.nvmem.bytes_inst_read::total          288                       # Number of instructions bytes read from this memory
system.realview.nvmem.num_reads::cpu0.inst           24                       # Number of read requests responded to by this memory
system.realview.nvmem.num_reads::cpu0.data            5                       # Number of read requests responded to by this memory
system.realview.nvmem.num_reads::cpu1.inst           16                       # Number of read requests responded to by this memory
system.realview.nvmem.num_reads::cpu1.data            1                       # Number of read requests responded to by this memory
system.realview.nvmem.num_reads::cpu2.inst           16                       # Number of read requests responded to by this memory
system.realview.nvmem.num_reads::cpu2.data            1                       # Number of read requests responded to by this memory
system.realview.nvmem.num_reads::cpu3.inst           16                       # Number of read requests responded to by this memory
system.realview.nvmem.num_reads::cpu3.data            1                       # Number of read requests responded to by this memory
system.realview.nvmem.num_reads::total             80                       # Number of read requests responded to by this memory
system.realview.nvmem.bw_read::cpu0.inst            0                       # Total read bandwidth from this memory (bytes/s)
system.realview.nvmem.bw_read::cpu0.data            0                       # Total read bandwidth from this memory (bytes/s)
system.realview.nvmem.bw_read::cpu1.inst            0                       # Total read bandwidth from this memory (bytes/s)
system.realview.nvmem.bw_read::cpu1.data            0                       # Total read bandwidth from this memory (bytes/s)
system.realview.nvmem.bw_read::cpu2.inst            0                       # Total read bandwidth from this memory (bytes/s)
system.realview.nvmem.bw_read::cpu2.data            0                       # Total read bandwidth from this memory (bytes/s)
system.realview.nvmem.bw_read::cpu3.inst            0                       # Total read bandwidth from this memory (bytes/s)
system.realview.nvmem.bw_read::cpu3.data            0                       # Total read bandwidth from this memory (bytes/s)
system.realview.nvmem.bw_read::total                0                       # Total read bandwidth from this memory (bytes/s)
system.realview.nvmem.bw_inst_read::cpu0.inst            0                       # Instruction read bandwidth from this memory (bytes/s)
system.realview.nvmem.bw_inst_read::cpu1.inst            0                       # Instruction read bandwidth from this memory (bytes/s)
system.realview.nvmem.bw_inst_read::cpu2.inst            0                       # Instruction read bandwidth from this memory (bytes/s)
system.realview.nvmem.bw_inst_read::cpu3.inst            0                       # Instruction read bandwidth from this memory (bytes/s)
system.realview.nvmem.bw_inst_read::total            0                       # Instruction read bandwidth from this memory (bytes/s)
system.realview.nvmem.bw_total::cpu0.inst            0                       # Total bandwidth to/from this memory (bytes/s)
system.realview.nvmem.bw_total::cpu0.data            0                       # Total bandwidth to/from this memory (bytes/s)
system.realview.nvmem.bw_total::cpu1.inst            0                       # Total bandwidth to/from this memory (bytes/s)
system.realview.nvmem.bw_total::cpu1.data            0                       # Total bandwidth to/from this memory (bytes/s)
system.realview.nvmem.bw_total::cpu2.inst            0                       # Total bandwidth to/from this memory (bytes/s)
system.realview.nvmem.bw_total::cpu2.data            0                       # Total bandwidth to/from this memory (bytes/s)
system.realview.nvmem.bw_total::cpu3.inst            0                       # Total bandwidth to/from this memory (bytes/s)
system.realview.nvmem.bw_total::cpu3.data            0                       # Total bandwidth to/from this memory (bytes/s)
system.realview.nvmem.bw_total::total               0                       # Total bandwidth to/from this memory (bytes/s)
system.pwrStateResidencyTicks::UNDEFINED 15973878096204314                       # Cumulative time (in ticks) in various power states
system.bridge.pwrStateResidencyTicks::UNDEFINED 15973878096204314                       # Cumulative time (in ticks) in various power states
system.cf0.dma_read_full_pages                    125                       # Number of full page size DMA reads (not PRD).
system.cf0.dma_read_bytes                      512000                       # Number of bytes transfered via DMA reads (not PRD).
system.cf0.dma_read_txs                           125                       # Number of DMA read transactions (not PRD).
system.cf0.dma_write_full_pages                  3944                       # Number of full page size DMA writes.
system.cf0.dma_write_bytes                   16156160                       # Number of bytes transfered via DMA writes.
system.cf0.dma_write_txs                         3946                       # Number of DMA write transactions.
system.cpu_voltage_domain.voltage                   1                       # Voltage in Volts
system.cpu_clk_domain.clock                       286                       # Clock period in ticks
system.cpu0.dstage2_mmu.stage2_tlb.walker.pwrStateResidencyTicks::UNDEFINED 15973878096204314                       # Cumulative time (in ticks) in various power states
system.cpu0.dstage2_mmu.stage2_tlb.walker.walks            0                       # Table walker walks requested
system.cpu0.dstage2_mmu.stage2_tlb.walker.walkRequestOrigin_Requested::Data            0                       # Table walker requests started/completed, data/inst
system.cpu0.dstage2_mmu.stage2_tlb.walker.walkRequestOrigin_Requested::Inst            0                       # Table walker requests started/completed, data/inst
system.cpu0.dstage2_mmu.stage2_tlb.walker.walkRequestOrigin_Requested::total            0                       # Table walker requests started/completed, data/inst
system.cpu0.dstage2_mmu.stage2_tlb.walker.walkRequestOrigin_Completed::Data            0                       # Table walker requests started/completed, data/inst
system.cpu0.dstage2_mmu.stage2_tlb.walker.walkRequestOrigin_Completed::Inst            0                       # Table walker requests started/completed, data/inst
system.cpu0.dstage2_mmu.stage2_tlb.walker.walkRequestOrigin_Completed::total            0                       # Table walker requests started/completed, data/inst
system.cpu0.dstage2_mmu.stage2_tlb.walker.walkRequestOrigin::total            0                       # Table walker requests started/completed, data/inst
system.cpu0.dstage2_mmu.stage2_tlb.inst_hits            0                       # ITB inst hits
system.cpu0.dstage2_mmu.stage2_tlb.inst_misses            0                       # ITB inst misses
system.cpu0.dstage2_mmu.stage2_tlb.read_hits            0                       # DTB read hits
system.cpu0.dstage2_mmu.stage2_tlb.read_misses            0                       # DTB read misses
system.cpu0.dstage2_mmu.stage2_tlb.write_hits            0                       # DTB write hits
system.cpu0.dstage2_mmu.stage2_tlb.write_misses            0                       # DTB write misses
system.cpu0.dstage2_mmu.stage2_tlb.flush_tlb            0                       # Number of times complete TLB was flushed
system.cpu0.dstage2_mmu.stage2_tlb.flush_tlb_mva            0                       # Number of times TLB was flushed by MVA
system.cpu0.dstage2_mmu.stage2_tlb.flush_tlb_mva_asid            0                       # Number of times TLB was flushed by MVA & ASID
system.cpu0.dstage2_mmu.stage2_tlb.flush_tlb_asid            0                       # Number of times TLB was flushed by ASID
system.cpu0.dstage2_mmu.stage2_tlb.flush_entries            0                       # Number of entries that have been flushed from TLB
system.cpu0.dstage2_mmu.stage2_tlb.align_faults            0                       # Number of TLB faults due to alignment restrictions
system.cpu0.dstage2_mmu.stage2_tlb.prefetch_faults            0                       # Number of TLB faults due to prefetch
system.cpu0.dstage2_mmu.stage2_tlb.domain_faults            0                       # Number of TLB faults due to domain restrictions
system.cpu0.dstage2_mmu.stage2_tlb.perms_faults            0                       # Number of TLB faults due to permissions restrictions
system.cpu0.dstage2_mmu.stage2_tlb.read_accesses            0                       # DTB read accesses
system.cpu0.dstage2_mmu.stage2_tlb.write_accesses            0                       # DTB write accesses
system.cpu0.dstage2_mmu.stage2_tlb.inst_accesses            0                       # ITB inst accesses
system.cpu0.dstage2_mmu.stage2_tlb.hits             0                       # DTB hits
system.cpu0.dstage2_mmu.stage2_tlb.misses            0                       # DTB misses
system.cpu0.dstage2_mmu.stage2_tlb.accesses            0                       # DTB accesses
system.cpu0.dtb.walker.pwrStateResidencyTicks::UNDEFINED 15973878096204314                       # Cumulative time (in ticks) in various power states
system.cpu0.dtb.walker.walks                   222560                       # Table walker walks requested
system.cpu0.dtb.walker.walksLong               222560                       # Table walker walks initiated with long descriptors
system.cpu0.dtb.walker.walkWaitTime::samples       222560                       # Table walker wait (enqueue to first request) latency
system.cpu0.dtb.walker.walkWaitTime::0         222560    100.00%    100.00% # Table walker wait (enqueue to first request) latency
system.cpu0.dtb.walker.walkWaitTime::total       222560                       # Table walker wait (enqueue to first request) latency
system.cpu0.dtb.walker.walksPending::samples      2079506                       # Table walker pending requests distribution
system.cpu0.dtb.walker.walksPending::0        2079506    100.00%    100.00% # Table walker pending requests distribution
system.cpu0.dtb.walker.walksPending::total      2079506                       # Table walker pending requests distribution
system.cpu0.dtb.walker.walkPageSizes::4K       171024     79.49%     79.49% # Table walker page sizes translated
system.cpu0.dtb.walker.walkPageSizes::2M        31451     14.62%     94.11% # Table walker page sizes translated
system.cpu0.dtb.walker.walkPageSizes::1G        12682      5.89%    100.00% # Table walker page sizes translated
system.cpu0.dtb.walker.walkPageSizes::total       215157                       # Table walker page sizes translated
system.cpu0.dtb.walker.walkRequestOrigin_Requested::Data       222560                       # Table walker requests started/completed, data/inst
system.cpu0.dtb.walker.walkRequestOrigin_Requested::Inst            0                       # Table walker requests started/completed, data/inst
system.cpu0.dtb.walker.walkRequestOrigin_Requested::total       222560                       # Table walker requests started/completed, data/inst
system.cpu0.dtb.walker.walkRequestOrigin_Completed::Data       215157                       # Table walker requests started/completed, data/inst
system.cpu0.dtb.walker.walkRequestOrigin_Completed::Inst            0                       # Table walker requests started/completed, data/inst
system.cpu0.dtb.walker.walkRequestOrigin_Completed::total       215157                       # Table walker requests started/completed, data/inst
system.cpu0.dtb.walker.walkRequestOrigin::total       437717                       # Table walker requests started/completed, data/inst
system.cpu0.dtb.inst_hits                           0                       # ITB inst hits
system.cpu0.dtb.inst_misses                         0                       # ITB inst misses
system.cpu0.dtb.read_hits                   160349474                       # DTB read hits
system.cpu0.dtb.read_misses                    192004                       # DTB read misses
system.cpu0.dtb.write_hits                  136058826                       # DTB write hits
system.cpu0.dtb.write_misses                    30556                       # DTB write misses
system.cpu0.dtb.flush_tlb                       15819                       # Number of times complete TLB was flushed
system.cpu0.dtb.flush_tlb_mva                       0                       # Number of times TLB was flushed by MVA
system.cpu0.dtb.flush_tlb_mva_asid              54353                       # Number of times TLB was flushed by MVA & ASID
system.cpu0.dtb.flush_tlb_asid                   1407                       # Number of times TLB was flushed by ASID
system.cpu0.dtb.flush_entries                  163117                       # Number of entries that have been flushed from TLB
system.cpu0.dtb.align_faults                        0                       # Number of TLB faults due to alignment restrictions
system.cpu0.dtb.prefetch_faults                 10288                       # Number of TLB faults due to prefetch
system.cpu0.dtb.domain_faults                       0                       # Number of TLB faults due to domain restrictions
system.cpu0.dtb.perms_faults                     6800                       # Number of TLB faults due to permissions restrictions
system.cpu0.dtb.read_accesses               160541478                       # DTB read accesses
system.cpu0.dtb.write_accesses              136089382                       # DTB write accesses
system.cpu0.dtb.inst_accesses                       0                       # ITB inst accesses
system.cpu0.dtb.hits                        296408300                       # DTB hits
system.cpu0.dtb.misses                         222560                       # DTB misses
system.cpu0.dtb.accesses                    296630860                       # DTB accesses
system.cpu0.istage2_mmu.stage2_tlb.walker.pwrStateResidencyTicks::UNDEFINED 15973878096204314                       # Cumulative time (in ticks) in various power states
system.cpu0.istage2_mmu.stage2_tlb.walker.walks            0                       # Table walker walks requested
system.cpu0.istage2_mmu.stage2_tlb.walker.walkRequestOrigin_Requested::Data            0                       # Table walker requests started/completed, data/inst
system.cpu0.istage2_mmu.stage2_tlb.walker.walkRequestOrigin_Requested::Inst            0                       # Table walker requests started/completed, data/inst
system.cpu0.istage2_mmu.stage2_tlb.walker.walkRequestOrigin_Requested::total            0                       # Table walker requests started/completed, data/inst
system.cpu0.istage2_mmu.stage2_tlb.walker.walkRequestOrigin_Completed::Data            0                       # Table walker requests started/completed, data/inst
system.cpu0.istage2_mmu.stage2_tlb.walker.walkRequestOrigin_Completed::Inst            0                       # Table walker requests started/completed, data/inst
system.cpu0.istage2_mmu.stage2_tlb.walker.walkRequestOrigin_Completed::total            0                       # Table walker requests started/completed, data/inst
system.cpu0.istage2_mmu.stage2_tlb.walker.walkRequestOrigin::total            0                       # Table walker requests started/completed, data/inst
system.cpu0.istage2_mmu.stage2_tlb.inst_hits            0                       # ITB inst hits
system.cpu0.istage2_mmu.stage2_tlb.inst_misses            0                       # ITB inst misses
system.cpu0.istage2_mmu.stage2_tlb.read_hits            0                       # DTB read hits
system.cpu0.istage2_mmu.stage2_tlb.read_misses            0                       # DTB read misses
system.cpu0.istage2_mmu.stage2_tlb.write_hits            0                       # DTB write hits
system.cpu0.istage2_mmu.stage2_tlb.write_misses            0                       # DTB write misses
system.cpu0.istage2_mmu.stage2_tlb.flush_tlb            0                       # Number of times complete TLB was flushed
system.cpu0.istage2_mmu.stage2_tlb.flush_tlb_mva            0                       # Number of times TLB was flushed by MVA
system.cpu0.istage2_mmu.stage2_tlb.flush_tlb_mva_asid            0                       # Number of times TLB was flushed by MVA & ASID
system.cpu0.istage2_mmu.stage2_tlb.flush_tlb_asid            0                       # Number of times TLB was flushed by ASID
system.cpu0.istage2_mmu.stage2_tlb.flush_entries            0                       # Number of entries that have been flushed from TLB
system.cpu0.istage2_mmu.stage2_tlb.align_faults            0                       # Number of TLB faults due to alignment restrictions
system.cpu0.istage2_mmu.stage2_tlb.prefetch_faults            0                       # Number of TLB faults due to prefetch
system.cpu0.istage2_mmu.stage2_tlb.domain_faults            0                       # Number of TLB faults due to domain restrictions
system.cpu0.istage2_mmu.stage2_tlb.perms_faults            0                       # Number of TLB faults due to permissions restrictions
system.cpu0.istage2_mmu.stage2_tlb.read_accesses            0                       # DTB read accesses
system.cpu0.istage2_mmu.stage2_tlb.write_accesses            0                       # DTB write accesses
system.cpu0.istage2_mmu.stage2_tlb.inst_accesses            0                       # ITB inst accesses
system.cpu0.istage2_mmu.stage2_tlb.hits             0                       # DTB hits
system.cpu0.istage2_mmu.stage2_tlb.misses            0                       # DTB misses
system.cpu0.istage2_mmu.stage2_tlb.accesses            0                       # DTB accesses
system.cpu0.itb.walker.pwrStateResidencyTicks::UNDEFINED 15973878096204314                       # Cumulative time (in ticks) in various power states
system.cpu0.itb.walker.walks                   107425                       # Table walker walks requested
system.cpu0.itb.walker.walksLong               107425                       # Table walker walks initiated with long descriptors
system.cpu0.itb.walker.walkWaitTime::samples       107425                       # Table walker wait (enqueue to first request) latency
system.cpu0.itb.walker.walkWaitTime::0         107425    100.00%    100.00% # Table walker wait (enqueue to first request) latency
system.cpu0.itb.walker.walkWaitTime::total       107425                       # Table walker wait (enqueue to first request) latency
system.cpu0.itb.walker.walksPending::samples      2076360                       # Table walker pending requests distribution
system.cpu0.itb.walker.walksPending::0        2076360    100.00%    100.00% # Table walker pending requests distribution
system.cpu0.itb.walker.walksPending::total      2076360                       # Table walker pending requests distribution
system.cpu0.itb.walker.walkPageSizes::4K        70187     67.05%     67.05% # Table walker page sizes translated
system.cpu0.itb.walker.walkPageSizes::2M        34483     32.94%     99.99% # Table walker page sizes translated
system.cpu0.itb.walker.walkPageSizes::1G            8      0.01%    100.00% # Table walker page sizes translated
system.cpu0.itb.walker.walkPageSizes::total       104678                       # Table walker page sizes translated
system.cpu0.itb.walker.walkRequestOrigin_Requested::Data            0                       # Table walker requests started/completed, data/inst
system.cpu0.itb.walker.walkRequestOrigin_Requested::Inst       107425                       # Table walker requests started/completed, data/inst
system.cpu0.itb.walker.walkRequestOrigin_Requested::total       107425                       # Table walker requests started/completed, data/inst
system.cpu0.itb.walker.walkRequestOrigin_Completed::Data            0                       # Table walker requests started/completed, data/inst
system.cpu0.itb.walker.walkRequestOrigin_Completed::Inst       104678                       # Table walker requests started/completed, data/inst
system.cpu0.itb.walker.walkRequestOrigin_Completed::total       104678                       # Table walker requests started/completed, data/inst
system.cpu0.itb.walker.walkRequestOrigin::total       212103                       # Table walker requests started/completed, data/inst
system.cpu0.itb.inst_hits                   776645812                       # ITB inst hits
system.cpu0.itb.inst_misses                    107425                       # ITB inst misses
system.cpu0.itb.read_hits                           0                       # DTB read hits
system.cpu0.itb.read_misses                         0                       # DTB read misses
system.cpu0.itb.write_hits                          0                       # DTB write hits
system.cpu0.itb.write_misses                        0                       # DTB write misses
system.cpu0.itb.flush_tlb                       15819                       # Number of times complete TLB was flushed
system.cpu0.itb.flush_tlb_mva                       0                       # Number of times TLB was flushed by MVA
system.cpu0.itb.flush_tlb_mva_asid              54353                       # Number of times TLB was flushed by MVA & ASID
system.cpu0.itb.flush_tlb_asid                   1407                       # Number of times TLB was flushed by ASID
system.cpu0.itb.flush_entries                   80545                       # Number of entries that have been flushed from TLB
system.cpu0.itb.align_faults                        0                       # Number of TLB faults due to alignment restrictions
system.cpu0.itb.prefetch_faults                     0                       # Number of TLB faults due to prefetch
system.cpu0.itb.domain_faults                       0                       # Number of TLB faults due to domain restrictions
system.cpu0.itb.perms_faults                        0                       # Number of TLB faults due to permissions restrictions
system.cpu0.itb.read_accesses                       0                       # DTB read accesses
system.cpu0.itb.write_accesses                      0                       # DTB write accesses
system.cpu0.itb.inst_accesses               776753237                       # ITB inst accesses
system.cpu0.itb.hits                        776645812                       # DTB hits
system.cpu0.itb.misses                         107425                       # DTB misses
system.cpu0.itb.accesses                    776753237                       # DTB accesses
system.cpu0.numPwrStateTransitions              46825                       # Number of power state transitions
system.cpu0.pwrStateClkGateDist::samples        23413                       # Distribution of time spent in the clock gated state
system.cpu0.pwrStateClkGateDist::mean    682254144862.525024                       # Distribution of time spent in the clock gated state
system.cpu0.pwrStateClkGateDist::stdev   460912519578.248047                       # Distribution of time spent in the clock gated state
system.cpu0.pwrStateClkGateDist::underflows         3676     15.70%     15.70% # Distribution of time spent in the clock gated state
system.cpu0.pwrStateClkGateDist::1000-5e+10         3490     14.91%     30.61% # Distribution of time spent in the clock gated state
system.cpu0.pwrStateClkGateDist::5e+10-1e+11           28      0.12%     30.73% # Distribution of time spent in the clock gated state
system.cpu0.pwrStateClkGateDist::1e+11-1.5e+11           27      0.12%     30.84% # Distribution of time spent in the clock gated state
system.cpu0.pwrStateClkGateDist::1.5e+11-2e+11           59      0.25%     31.09% # Distribution of time spent in the clock gated state
system.cpu0.pwrStateClkGateDist::2e+11-2.5e+11           24      0.10%     31.20% # Distribution of time spent in the clock gated state
system.cpu0.pwrStateClkGateDist::2.5e+11-3e+11           17      0.07%     31.27% # Distribution of time spent in the clock gated state
system.cpu0.pwrStateClkGateDist::3e+11-3.5e+11           24      0.10%     31.37% # Distribution of time spent in the clock gated state
system.cpu0.pwrStateClkGateDist::3.5e+11-4e+11           48      0.21%     31.58% # Distribution of time spent in the clock gated state
system.cpu0.pwrStateClkGateDist::4e+11-4.5e+11           26      0.11%     31.69% # Distribution of time spent in the clock gated state
system.cpu0.pwrStateClkGateDist::4.5e+11-5e+11           23      0.10%     31.79% # Distribution of time spent in the clock gated state
system.cpu0.pwrStateClkGateDist::5e+11-5.5e+11           21      0.09%     31.88% # Distribution of time spent in the clock gated state
system.cpu0.pwrStateClkGateDist::5.5e+11-6e+11           44      0.19%     32.06% # Distribution of time spent in the clock gated state
system.cpu0.pwrStateClkGateDist::6e+11-6.5e+11           29      0.12%     32.19% # Distribution of time spent in the clock gated state
system.cpu0.pwrStateClkGateDist::6.5e+11-7e+11           23      0.10%     32.29% # Distribution of time spent in the clock gated state
system.cpu0.pwrStateClkGateDist::7e+11-7.5e+11           18      0.08%     32.36% # Distribution of time spent in the clock gated state
system.cpu0.pwrStateClkGateDist::7.5e+11-8e+11           51      0.22%     32.58% # Distribution of time spent in the clock gated state
system.cpu0.pwrStateClkGateDist::8e+11-8.5e+11           32      0.14%     32.72% # Distribution of time spent in the clock gated state
system.cpu0.pwrStateClkGateDist::8.5e+11-9e+11           26      0.11%     32.83% # Distribution of time spent in the clock gated state
system.cpu0.pwrStateClkGateDist::9e+11-9.5e+11           27      0.12%     32.94% # Distribution of time spent in the clock gated state
system.cpu0.pwrStateClkGateDist::9.5e+11-1e+12        15700     67.06%    100.00% # Distribution of time spent in the clock gated state
system.cpu0.pwrStateClkGateDist::min_value          286                       # Distribution of time spent in the clock gated state
system.cpu0.pwrStateClkGateDist::max_value 999983027878                       # Distribution of time spent in the clock gated state
system.cpu0.pwrStateClkGateDist::total          23413                       # Distribution of time spent in the clock gated state
system.cpu0.pwrStateResidencyTicks::ON   261802537786                       # Cumulative time (in ticks) in various power states
system.cpu0.pwrStateResidencyTicks::CLK_GATED 15973616293666298                       # Cumulative time (in ticks) in various power states
system.cpu0.numCycles                    55852720279509                       # number of cpu cycles simulated
system.cpu0.numWorkItemsStarted                     0                       # number of work items this cpu started
system.cpu0.numWorkItemsCompleted                   0                       # number of work items this cpu completed
system.cpu0.kern.inst.arm                           0                       # number of arm instructions executed
system.cpu0.kern.inst.quiesce                   23413                       # number of quiesce instructions executed
system.cpu0.committedInsts                  775931941                       # Number of instructions committed
system.cpu0.committedOps                    914576232                       # Number of ops (including micro ops) committed
system.cpu0.num_int_alu_accesses            853472432                       # Number of integer alu accesses
system.cpu0.num_fp_alu_accesses                     0                       # Number of float alu accesses
system.cpu0.num_vec_alu_accesses               601584                       # Number of vector alu accesses
system.cpu0.num_func_calls                   55973280                       # number of times a function call or return occured
system.cpu0.num_conditional_control_insts    109129387                       # number of instructions that are conditional controls
system.cpu0.num_int_insts                   853472432                       # number of integer instructions
system.cpu0.num_fp_insts                            0                       # number of float instructions
system.cpu0.num_vec_insts                      601584                       # number of vector instructions
system.cpu0.num_int_register_reads         1122018347                       # number of times the integer registers were read
system.cpu0.num_int_register_writes         665833096                       # number of times the integer registers were written
system.cpu0.num_fp_register_reads                   0                       # number of times the floating registers were read
system.cpu0.num_fp_register_writes                  0                       # number of times the floating registers were written
system.cpu0.num_vec_register_reads             428247                       # number of times the vector registers were read
system.cpu0.num_vec_register_writes            205717                       # number of times the vector registers were written
system.cpu0.num_cc_register_reads           165918774                       # number of times the CC registers were read
system.cpu0.num_cc_register_writes          164848887                       # number of times the CC registers were written
system.cpu0.num_mem_refs                    296593437                       # number of memory refs
system.cpu0.num_load_insts                  160510923                       # Number of load instructions
system.cpu0.num_store_insts                 136082514                       # Number of store instructions
system.cpu0.num_idle_cycles              55851804886025.757812                       # Number of idle cycles
system.cpu0.num_busy_cycles              915393483.245724                       # Number of busy cycles
system.cpu0.not_idle_fraction                0.000016                       # Percentage of non-idle cycles
system.cpu0.idle_fraction                    0.999984                       # Percentage of idle cycles
system.cpu0.Branches                        174963705                       # Number of branches fetched
system.cpu0.op_class::No_OpClass                    0      0.00%      0.00% # Class of executed instruction
system.cpu0.op_class::IntAlu                616121393     67.31%     67.31% # Class of executed instruction
system.cpu0.op_class::IntMult                 2110466      0.23%     67.54% # Class of executed instruction
system.cpu0.op_class::IntDiv                   441829      0.05%     67.59% # Class of executed instruction
system.cpu0.op_class::FloatAdd                     15      0.00%     67.59% # Class of executed instruction
system.cpu0.op_class::FloatCmp                    126      0.00%     67.59% # Class of executed instruction
system.cpu0.op_class::FloatCvt                     14      0.00%     67.59% # Class of executed instruction
system.cpu0.op_class::FloatMult                    40      0.00%     67.59% # Class of executed instruction
system.cpu0.op_class::FloatMultAcc                  0      0.00%     67.59% # Class of executed instruction
system.cpu0.op_class::FloatDiv                      1      0.00%     67.59% # Class of executed instruction
system.cpu0.op_class::FloatMisc                132155      0.01%     67.60% # Class of executed instruction
system.cpu0.op_class::FloatSqrt                     0      0.00%     67.60% # Class of executed instruction
system.cpu0.op_class::SimdAdd                       0      0.00%     67.60% # Class of executed instruction
system.cpu0.op_class::SimdAddAcc                    0      0.00%     67.60% # Class of executed instruction
system.cpu0.op_class::SimdAlu                       0      0.00%     67.60% # Class of executed instruction
system.cpu0.op_class::SimdCmp                       0      0.00%     67.60% # Class of executed instruction
system.cpu0.op_class::SimdCvt                       0      0.00%     67.60% # Class of executed instruction
system.cpu0.op_class::SimdMisc                      0      0.00%     67.60% # Class of executed instruction
system.cpu0.op_class::SimdMult                      0      0.00%     67.60% # Class of executed instruction
system.cpu0.op_class::SimdMultAcc                   0      0.00%     67.60% # Class of executed instruction
system.cpu0.op_class::SimdShift                     0      0.00%     67.60% # Class of executed instruction
system.cpu0.op_class::SimdShiftAcc                  0      0.00%     67.60% # Class of executed instruction
system.cpu0.op_class::SimdSqrt                      0      0.00%     67.60% # Class of executed instruction
system.cpu0.op_class::SimdFloatAdd                  0      0.00%     67.60% # Class of executed instruction
system.cpu0.op_class::SimdFloatAlu                  0      0.00%     67.60% # Class of executed instruction
system.cpu0.op_class::SimdFloatCmp                  0      0.00%     67.60% # Class of executed instruction
system.cpu0.op_class::SimdFloatCvt                  0      0.00%     67.60% # Class of executed instruction
system.cpu0.op_class::SimdFloatDiv                  0      0.00%     67.60% # Class of executed instruction
system.cpu0.op_class::SimdFloatMisc                 0      0.00%     67.60% # Class of executed instruction
system.cpu0.op_class::SimdFloatMult                 0      0.00%     67.60% # Class of executed instruction
system.cpu0.op_class::SimdFloatMultAcc              0      0.00%     67.60% # Class of executed instruction
system.cpu0.op_class::SimdFloatSqrt                 0      0.00%     67.60% # Class of executed instruction
system.cpu0.op_class::MemRead               160510923     17.53%     85.13% # Class of executed instruction
system.cpu0.op_class::MemWrite              136082514     14.87%    100.00% # Class of executed instruction
system.cpu0.op_class::FloatMemRead                  0      0.00%    100.00% # Class of executed instruction
system.cpu0.op_class::FloatMemWrite                 0      0.00%    100.00% # Class of executed instruction
system.cpu0.op_class::IprAccess                     0      0.00%    100.00% # Class of executed instruction
system.cpu0.op_class::InstPrefetch                  0      0.00%    100.00% # Class of executed instruction
system.cpu0.op_class::total                 915399476                       # Class of executed instruction
system.cpu1.dstage2_mmu.stage2_tlb.walker.pwrStateResidencyTicks::UNDEFINED 15973878096204314                       # Cumulative time (in ticks) in various power states
system.cpu1.dstage2_mmu.stage2_tlb.walker.walks            0                       # Table walker walks requested
system.cpu1.dstage2_mmu.stage2_tlb.walker.walkRequestOrigin_Requested::Data            0                       # Table walker requests started/completed, data/inst
system.cpu1.dstage2_mmu.stage2_tlb.walker.walkRequestOrigin_Requested::Inst            0                       # Table walker requests started/completed, data/inst
system.cpu1.dstage2_mmu.stage2_tlb.walker.walkRequestOrigin_Requested::total            0                       # Table walker requests started/completed, data/inst
system.cpu1.dstage2_mmu.stage2_tlb.walker.walkRequestOrigin_Completed::Data            0                       # Table walker requests started/completed, data/inst
system.cpu1.dstage2_mmu.stage2_tlb.walker.walkRequestOrigin_Completed::Inst            0                       # Table walker requests started/completed, data/inst
system.cpu1.dstage2_mmu.stage2_tlb.walker.walkRequestOrigin_Completed::total            0                       # Table walker requests started/completed, data/inst
system.cpu1.dstage2_mmu.stage2_tlb.walker.walkRequestOrigin::total            0                       # Table walker requests started/completed, data/inst
system.cpu1.dstage2_mmu.stage2_tlb.inst_hits            0                       # ITB inst hits
system.cpu1.dstage2_mmu.stage2_tlb.inst_misses            0                       # ITB inst misses
system.cpu1.dstage2_mmu.stage2_tlb.read_hits            0                       # DTB read hits
system.cpu1.dstage2_mmu.stage2_tlb.read_misses            0                       # DTB read misses
system.cpu1.dstage2_mmu.stage2_tlb.write_hits            0                       # DTB write hits
system.cpu1.dstage2_mmu.stage2_tlb.write_misses            0                       # DTB write misses
system.cpu1.dstage2_mmu.stage2_tlb.flush_tlb            0                       # Number of times complete TLB was flushed
system.cpu1.dstage2_mmu.stage2_tlb.flush_tlb_mva            0                       # Number of times TLB was flushed by MVA
system.cpu1.dstage2_mmu.stage2_tlb.flush_tlb_mva_asid            0                       # Number of times TLB was flushed by MVA & ASID
system.cpu1.dstage2_mmu.stage2_tlb.flush_tlb_asid            0                       # Number of times TLB was flushed by ASID
system.cpu1.dstage2_mmu.stage2_tlb.flush_entries            0                       # Number of entries that have been flushed from TLB
system.cpu1.dstage2_mmu.stage2_tlb.align_faults            0                       # Number of TLB faults due to alignment restrictions
system.cpu1.dstage2_mmu.stage2_tlb.prefetch_faults            0                       # Number of TLB faults due to prefetch
system.cpu1.dstage2_mmu.stage2_tlb.domain_faults            0                       # Number of TLB faults due to domain restrictions
system.cpu1.dstage2_mmu.stage2_tlb.perms_faults            0                       # Number of TLB faults due to permissions restrictions
system.cpu1.dstage2_mmu.stage2_tlb.read_accesses            0                       # DTB read accesses
system.cpu1.dstage2_mmu.stage2_tlb.write_accesses            0                       # DTB write accesses
system.cpu1.dstage2_mmu.stage2_tlb.inst_accesses            0                       # ITB inst accesses
system.cpu1.dstage2_mmu.stage2_tlb.hits             0                       # DTB hits
system.cpu1.dstage2_mmu.stage2_tlb.misses            0                       # DTB misses
system.cpu1.dstage2_mmu.stage2_tlb.accesses            0                       # DTB accesses
[...]
system.switch_cpus3.dstage2_mmu.stage2_tlb.align_faults            0                       # Number of TLB faults due to alignment restrictions
system.switch_cpus3.dstage2_mmu.stage2_tlb.prefetch_faults            0                       # Number of TLB faults due to prefetch
system.switch_cpus3.dstage2_mmu.stage2_tlb.domain_faults            0                       # Number of TLB faults due to domain restrictions
system.switch_cpus3.dstage2_mmu.stage2_tlb.perms_faults            0                       # Number of TLB faults due to permissions restrictions
system.switch_cpus3.dstage2_mmu.stage2_tlb.read_accesses            0                       # DTB read accesses
system.switch_cpus3.dstage2_mmu.stage2_tlb.write_accesses            0                       # DTB write accesses
system.switch_cpus3.dstage2_mmu.stage2_tlb.inst_accesses            0                       # ITB inst accesses
system.switch_cpus3.dstage2_mmu.stage2_tlb.hits            0                       # DTB hits
system.switch_cpus3.dstage2_mmu.stage2_tlb.misses            0                       # DTB misses
system.switch_cpus3.dstage2_mmu.stage2_tlb.accesses            0                       # DTB accesses
system.switch_cpus3.dtb.walker.pwrStateResidencyTicks::UNDEFINED 18579849819712896                       # Cumulative time (in ticks) in various power states
system.switch_cpus3.dtb.walker.walks                0                       # Table walker walks requested
system.switch_cpus3.dtb.walker.walkRequestOrigin_Requested::Data            0                       # Table walker requests started/completed, data/inst
system.switch_cpus3.dtb.walker.walkRequestOrigin_Requested::Inst            0                       # Table walker requests started/completed, data/inst
system.switch_cpus3.dtb.walker.walkRequestOrigin_Requested::total            0                       # Table walker requests started/completed, data/inst
system.switch_cpus3.dtb.walker.walkRequestOrigin_Completed::Data            0                       # Table walker requests started/completed, data/inst
system.switch_cpus3.dtb.walker.walkRequestOrigin_Completed::Inst            0                       # Table walker requests started/completed, data/inst
system.switch_cpus3.dtb.walker.walkRequestOrigin_Completed::total            0                       # Table walker requests started/completed, data/inst
system.switch_cpus3.dtb.walker.walkRequestOrigin::total            0                       # Table walker requests started/completed, data/inst
system.switch_cpus3.dtb.inst_hits                   0                       # ITB inst hits
system.switch_cpus3.dtb.inst_misses                 0                       # ITB inst misses
system.switch_cpus3.dtb.read_hits                   0                       # DTB read hits
system.switch_cpus3.dtb.read_misses                 0                       # DTB read misses
system.switch_cpus3.dtb.write_hits                  0                       # DTB write hits
system.switch_cpus3.dtb.write_misses                0                       # DTB write misses
system.switch_cpus3.dtb.flush_tlb                   0                       # Number of times complete TLB was flushed
system.switch_cpus3.dtb.flush_tlb_mva               0                       # Number of times TLB was flushed by MVA
system.switch_cpus3.dtb.flush_tlb_mva_asid            0                       # Number of times TLB was flushed by MVA & ASID
system.switch_cpus3.dtb.flush_tlb_asid              0                       # Number of times TLB was flushed by ASID
system.switch_cpus3.dtb.flush_entries               0                       # Number of entries that have been flushed from TLB
system.switch_cpus3.dtb.align_faults                0                       # Number of TLB faults due to alignment restrictions
system.switch_cpus3.dtb.prefetch_faults             0                       # Number of TLB faults due to prefetch
system.switch_cpus3.dtb.domain_faults               0                       # Number of TLB faults due to domain restrictions
system.switch_cpus3.dtb.perms_faults                0                       # Number of TLB faults due to permissions restrictions
system.switch_cpus3.dtb.read_accesses               0                       # DTB read accesses
system.switch_cpus3.dtb.write_accesses              0                       # DTB write accesses
system.switch_cpus3.dtb.inst_accesses               0                       # ITB inst accesses
system.switch_cpus3.dtb.hits                        0                       # DTB hits
system.switch_cpus3.dtb.misses                      0                       # DTB misses
system.switch_cpus3.dtb.accesses                    0                       # DTB accesses
system.switch_cpus3.istage2_mmu.stage2_tlb.walker.pwrStateResidencyTicks::UNDEFINED 18579849819712896                       # Cumulative time (in ticks) in various power states
system.switch_cpus3.istage2_mmu.stage2_tlb.walker.walks            0                       # Table walker walks requested
system.switch_cpus3.istage2_mmu.stage2_tlb.walker.walkRequestOrigin_Requested::Data            0                       # Table walker requests started/completed, data/inst
system.switch_cpus3.istage2_mmu.stage2_tlb.walker.walkRequestOrigin_Requested::Inst            0                       # Table walker requests started/completed, data/inst
system.switch_cpus3.istage2_mmu.stage2_tlb.walker.walkRequestOrigin_Requested::total            0                       # Table walker requests started/completed, data/inst
system.switch_cpus3.istage2_mmu.stage2_tlb.walker.walkRequestOrigin_Completed::Data            0                       # Table walker requests started/completed, data/inst
system.switch_cpus3.istage2_mmu.stage2_tlb.walker.walkRequestOrigin_Completed::Inst            0                       # Table walker requests started/completed, data/inst
system.switch_cpus3.istage2_mmu.stage2_tlb.walker.walkRequestOrigin_Completed::total            0                       # Table walker requests started/completed, data/inst
system.switch_cpus3.istage2_mmu.stage2_tlb.walker.walkRequestOrigin::total            0                       # Table walker requests started/completed, data/inst
system.switch_cpus3.istage2_mmu.stage2_tlb.inst_hits            0                       # ITB inst hits
system.switch_cpus3.istage2_mmu.stage2_tlb.inst_misses            0                       # ITB inst misses
system.switch_cpus3.istage2_mmu.stage2_tlb.read_hits            0                       # DTB read hits
system.switch_cpus3.istage2_mmu.stage2_tlb.read_misses            0                       # DTB read misses
system.switch_cpus3.istage2_mmu.stage2_tlb.write_hits            0                       # DTB write hits
system.switch_cpus3.istage2_mmu.stage2_tlb.write_misses            0                       # DTB write misses
system.switch_cpus3.istage2_mmu.stage2_tlb.flush_tlb            0                       # Number of times complete TLB was flushed
system.switch_cpus3.istage2_mmu.stage2_tlb.flush_tlb_mva            0                       # Number of times TLB was flushed by MVA
system.switch_cpus3.istage2_mmu.stage2_tlb.flush_tlb_mva_asid            0                       # Number of times TLB was flushed by MVA & ASID
system.switch_cpus3.istage2_mmu.stage2_tlb.flush_tlb_asid            0                       # Number of times TLB was flushed by ASID
system.switch_cpus3.istage2_mmu.stage2_tlb.flush_entries            0                       # Number of entries that have been flushed from TLB
system.switch_cpus3.istage2_mmu.stage2_tlb.align_faults            0                       # Number of TLB faults due to alignment restrictions
system.switch_cpus3.istage2_mmu.stage2_tlb.prefetch_faults            0                       # Number of TLB faults due to prefetch
system.switch_cpus3.istage2_mmu.stage2_tlb.domain_faults            0                       # Number of TLB faults due to domain restrictions
system.switch_cpus3.istage2_mmu.stage2_tlb.perms_faults            0                       # Number of TLB faults due to permissions restrictions
system.switch_cpus3.istage2_mmu.stage2_tlb.read_accesses            0                       # DTB read accesses
system.switch_cpus3.istage2_mmu.stage2_tlb.write_accesses            0                       # DTB write accesses
system.switch_cpus3.istage2_mmu.stage2_tlb.inst_accesses            0                       # ITB inst accesses
system.switch_cpus3.istage2_mmu.stage2_tlb.hits            0                       # DTB hits
system.switch_cpus3.istage2_mmu.stage2_tlb.misses            0                       # DTB misses
system.switch_cpus3.istage2_mmu.stage2_tlb.accesses            0                       # DTB accesses
system.switch_cpus3.itb.walker.pwrStateResidencyTicks::UNDEFINED 18579849819712896                       # Cumulative time (in ticks) in various power states
system.switch_cpus3.itb.walker.walks                0                       # Table walker walks requested
system.switch_cpus3.itb.walker.walkRequestOrigin_Requested::Data            0                       # Table walker requests started/completed, data/inst
system.switch_cpus3.itb.walker.walkRequestOrigin_Requested::Inst            0                       # Table walker requests started/completed, data/inst
system.switch_cpus3.itb.walker.walkRequestOrigin_Requested::total            0                       # Table walker requests started/completed, data/inst
system.switch_cpus3.itb.walker.walkRequestOrigin_Completed::Data            0                       # Table walker requests started/completed, data/inst
system.switch_cpus3.itb.walker.walkRequestOrigin_Completed::Inst            0                       # Table walker requests started/completed, data/inst
system.switch_cpus3.itb.walker.walkRequestOrigin_Completed::total            0                       # Table walker requests started/completed, data/inst
system.switch_cpus3.itb.walker.walkRequestOrigin::total            0                       # Table walker requests started/completed, data/inst
system.switch_cpus3.itb.inst_hits                   0                       # ITB inst hits
system.switch_cpus3.itb.inst_misses                 0                       # ITB inst misses
system.switch_cpus3.itb.read_hits                   0                       # DTB read hits
system.switch_cpus3.itb.read_misses                 0                       # DTB read misses
system.switch_cpus3.itb.write_hits                  0                       # DTB write hits
system.switch_cpus3.itb.write_misses                0                       # DTB write misses
system.switch_cpus3.itb.flush_tlb                   0                       # Number of times complete TLB was flushed
system.switch_cpus3.itb.flush_tlb_mva               0                       # Number of times TLB was flushed by MVA
system.switch_cpus3.itb.flush_tlb_mva_asid            0                       # Number of times TLB was flushed by MVA & ASID
system.switch_cpus3.itb.flush_tlb_asid              0                       # Number of times TLB was flushed by ASID
system.switch_cpus3.itb.flush_entries               0                       # Number of entries that have been flushed from TLB
system.switch_cpus3.itb.align_faults                0                       # Number of TLB faults due to alignment restrictions
system.switch_cpus3.itb.prefetch_faults             0                       # Number of TLB faults due to prefetch
system.switch_cpus3.itb.domain_faults               0                       # Number of TLB faults due to domain restrictions
system.switch_cpus3.itb.perms_faults                0                       # Number of TLB faults due to permissions restrictions
system.switch_cpus3.itb.read_accesses               0                       # DTB read accesses
system.switch_cpus3.itb.write_accesses              0                       # DTB write accesses
system.switch_cpus3.itb.inst_accesses               0                       # ITB inst accesses
system.switch_cpus3.itb.hits                        0                       # DTB hits
system.switch_cpus3.itb.misses                      0                       # DTB misses
system.switch_cpus3.itb.accesses                    0                       # DTB accesses
system.switch_cpus3.pwrStateResidencyTicks::ON 18579849819712896                       # Cumulative time (in ticks) in various power states
system.switch_cpus3.numCycles                       0                       # number of cpu cycles simulated
system.switch_cpus3.numWorkItemsStarted             0                       # number of work items this cpu started
system.switch_cpus3.numWorkItemsCompleted            0                       # number of work items this cpu completed
system.switch_cpus3.kern.inst.arm                   0                       # number of arm instructions executed
system.switch_cpus3.kern.inst.quiesce               0                       # number of quiesce instructions executed
system.switch_cpus3.committedInsts                  0                       # Number of instructions committed
system.switch_cpus3.committedOps                    0                       # Number of ops (including micro ops) committed
system.switch_cpus3.num_int_alu_accesses            0                       # Number of integer alu accesses
system.switch_cpus3.num_fp_alu_accesses             0                       # Number of float alu accesses
system.switch_cpus3.num_vec_alu_accesses            0                       # Number of vector alu accesses
system.switch_cpus3.num_func_calls                  0                       # number of times a function call or return occured
system.switch_cpus3.num_conditional_control_insts            0                       # number of instructions that are conditional controls
system.switch_cpus3.num_int_insts                   0                       # number of integer instructions
system.switch_cpus3.num_fp_insts                    0                       # number of float instructions
system.switch_cpus3.num_vec_insts                   0                       # number of vector instructions
system.switch_cpus3.num_int_register_reads            0                       # number of times the integer registers were read
system.switch_cpus3.num_int_register_writes            0                       # number of times the integer registers were written
system.switch_cpus3.num_fp_register_reads            0                       # number of times the floating registers were read
system.switch_cpus3.num_fp_register_writes            0                       # number of times the floating registers were written
system.switch_cpus3.num_vec_register_reads            0                       # number of times the vector registers were read
system.switch_cpus3.num_vec_register_writes            0                       # number of times the vector registers were written
system.switch_cpus3.num_mem_refs                    0                       # number of memory refs
system.switch_cpus3.num_load_insts                  0                       # Number of load instructions
system.switch_cpus3.num_store_insts                 0                       # Number of store instructions
system.switch_cpus3.num_idle_cycles                 0                       # Number of idle cycles
system.switch_cpus3.num_busy_cycles                 0                       # Number of busy cycles
system.switch_cpus3.not_idle_fraction               0                       # Percentage of non-idle cycles
system.switch_cpus3.idle_fraction                   1                       # Percentage of idle cycles
system.switch_cpus3.op_class::No_OpClass            0                       # Class of executed instruction
system.switch_cpus3.op_class::IntAlu                0                       # Class of executed instruction
system.switch_cpus3.op_class::IntMult               0                       # Class of executed instruction
system.switch_cpus3.op_class::IntDiv                0                       # Class of executed instruction
system.switch_cpus3.op_class::FloatAdd              0                       # Class of executed instruction
system.switch_cpus3.op_class::FloatCmp              0                       # Class of executed instruction
system.switch_cpus3.op_class::FloatCvt              0                       # Class of executed instruction
system.switch_cpus3.op_class::FloatMult             0                       # Class of executed instruction
system.switch_cpus3.op_class::FloatMultAcc            0                       # Class of executed instruction
system.switch_cpus3.op_class::FloatDiv              0                       # Class of executed instruction
system.switch_cpus3.op_class::FloatMisc             0                       # Class of executed instruction
system.switch_cpus3.op_class::FloatSqrt             0                       # Class of executed instruction
system.switch_cpus3.op_class::SimdAdd               0                       # Class of executed instruction
system.switch_cpus3.op_class::SimdAddAcc            0                       # Class of executed instruction
system.switch_cpus3.op_class::SimdAlu               0                       # Class of executed instruction
system.switch_cpus3.op_class::SimdCmp               0                       # Class of executed instruction
system.switch_cpus3.op_class::SimdCvt               0                       # Class of executed instruction
system.switch_cpus3.op_class::SimdMisc              0                       # Class of executed instruction
system.switch_cpus3.op_class::SimdMult              0                       # Class of executed instruction
system.switch_cpus3.op_class::SimdMultAcc            0                       # Class of executed instruction
system.switch_cpus3.op_class::SimdShift             0                       # Class of executed instruction
system.switch_cpus3.op_class::SimdShiftAcc            0                       # Class of executed instruction
system.switch_cpus3.op_class::SimdSqrt              0                       # Class of executed instruction
system.switch_cpus3.op_class::SimdFloatAdd            0                       # Class of executed instruction
system.switch_cpus3.op_class::SimdFloatAlu            0                       # Class of executed instruction
system.switch_cpus3.op_class::SimdFloatCmp            0                       # Class of executed instruction
system.switch_cpus3.op_class::SimdFloatCvt            0                       # Class of executed instruction
system.switch_cpus3.op_class::SimdFloatDiv            0                       # Class of executed instruction
system.switch_cpus3.op_class::SimdFloatMisc            0                       # Class of executed instruction
system.switch_cpus3.op_class::SimdFloatMult            0                       # Class of executed instruction
system.switch_cpus3.op_class::SimdFloatMultAcc            0                       # Class of executed instruction
system.switch_cpus3.op_class::SimdFloatSqrt            0                       # Class of executed instruction
system.switch_cpus3.op_class::MemRead               0                       # Class of executed instruction
system.switch_cpus3.op_class::MemWrite              0                       # Class of executed instruction
system.switch_cpus3.op_class::FloatMemRead            0                       # Class of executed instruction
system.switch_cpus3.op_class::FloatMemWrite            0                       # Class of executed instruction
system.switch_cpus3.op_class::IprAccess             0                       # Class of executed instruction
system.switch_cpus3.op_class::InstPrefetch            0                       # Class of executed instruction
system.switch_cpus3.op_class::total                 0                       # Class of executed instruction

---------- End Simulation Statistics   ----------
